data original/D014470/Lines.dss
New Line.line0 Units=km Length=0.02268 bus1=n119941.1.2.3 bus2=n119942.1.2.3 switch=n enabled=y phases=3 Linecode=415V_185CU4_P_L_*_3
New Line.line1 Units=km Length=0.040369999999999996 bus1=n119942.1.2.3 bus2=n119943.1.2.3 switch=n enabled=y phases=3 Linecode=415V_185CU4_P_L_*_3
New Line.line10 Units=km Length=0.044360000000000004 bus1=n119949.1.2.3 bus2=n119950.1.2.3 switch=n enabled=y phases=3 Linecode=415V_185CU4_P_L_*_3
New Line.line11 Units=km Length=0.04036 bus1=n119950.1.2.3 bus2=n599943.1.2.3 switch=n enabled=y phases=3 Linecode=415V_185CU4_P_L_*_3
New Line.line12 Units=km Length=0.03836 bus1=n119948.1.2.3 bus2=n119951.1.2.3 switch=n enabled=y phases=3 Linecode=240AL_3
New Line.line13 Units=km Length=0.001 bus1=n119951.1.2.3 bus2=n599944.1.2.3 switch=n enabled=y phases=3 Linecode=240AL_3
New Line.line14 Units=km Length=0.032909999999999995 bus1=n119951.1.2.3 bus2=n599945.1.2.3 switch=n enabled=y phases=3 Linecode=240AL_3
New Line.line2 Units=km Length=0.06529 bus1=n119943.1.2.3 bus2=n119944.1.2.3 switch=n enabled=y phases=3 Linecode=415V_185CU4_P_L_*_3
New Line.line3 Units=km Length=0.03218 bus1=n119944.1.2.3 bus2=n119945.1.2.3 switch=n enabled=y phases=3 Linecode=415V_185CU4_P_L_*_3
New Line.line4 Units=km Length=0.039240000000000004 bus1=n119945.1.2.3 bus2=n119946.1.2.3 switch=n enabled=y phases=3 Linecode=415V_185CU4_P_L_*_3
New Line.line5 Units=km Length=0.051840000000000004 bus1=n119946.1.2.3 bus2=n119947.1.2.3 switch=n enabled=y phases=3 Linecode=415V_185CU4_P_L_*_3
New Line.line6 Units=km Length=0.05878 bus1=n119947.1.2.3 bus2=n119948.1.2.3 switch=n enabled=y phases=3 Linecode=240AL_3
New Line.line7 Units=km Length=0.03102 bus1=n119948.1.2.3 bus2=n599941.1.2.3 switch=n enabled=y phases=3 Linecode=240AL_3
New Line.line8 Units=km Length=0.040299999999999996 bus1=n119942.1.2.3 bus2=n599942.1.2.3 switch=n enabled=y phases=3 Linecode=415V_185CU4_P_L_*_3
New Line.line9 Units=km Length=0.03178 bus1=n119945.1.2.3 bus2=n119949.1.2.3 switch=n enabled=y phases=3 Linecode=415V_185CU4_P_L_*_3
